Circuit: * C:\Users\Lucas\Documents\Actualmente Usando\Laboratorio de Electrónica\labelec-tp2\Simulaciones\Draft1.asc

Direct Newton iteration for .op point succeeded.

Date: Fri Sep 13 16:46:03 2019
Total elapsed time: 4.900 seconds.

tnom = 27
temp = 27
method = modified trap
totiter = 3591436
traniter = 3591431
tranpoints = 1173939
accept = 921462
rejected = 252477
matrix size = 11
fillins = 1
solver = Normal
Matrix Compiler1: 574 bytes object code size  0.1/0.1/[0.1]
Matrix Compiler2: 827 bytes object code size  0.2/0.1/[0.1]

