Circuit: * C:\Users\Carlos\Desktop\ITBA\3er año\1er cuatri\LABO\TP2\labelec-tp2\Simulaciones\Pasabajos.asc

Direct Newton iteration for .op point succeeded.

Date: Fri Sep 13 15:45:12 2019
Total elapsed time: 0.091 seconds.

tnom = 27
temp = 27
method = trap
totiter = 18
traniter = 0
tranpoints = 0
accept = 0
rejected = 0
matrix size = 45
fillins = 17
solver = Normal
Matrix Compiler1:     137 opcodes
Matrix Compiler2: 3.65 KB object code size
