Circuit: * C:\Users\Lucas\Documents\Actualmente Usando\Laboratorio de Electrónica\labelec-tp4\Simulación\puente_cserie.asc

.OP point found by inspection.

Date: Wed Oct 16 16:26:01 2019
Total elapsed time: 0.032 seconds.

tnom = 27
temp = 27
method = modified trap
totiter = 236
traniter = 236
tranpoints = 119
accept = 118
rejected = 1
matrix size = 6
fillins = 0
solver = Normal
Matrix Compiler1: 200 bytes object code size  0.1/0.1/[0.0]
Matrix Compiler2: 394 bytes object code size  0.0/0.1/[0.0]

