Circuit: * C:\Users\Lucas\Documents\Actualmente Usando\Laboratorio de Electrónica\labelec-tp3\Simulación\FuenteConmutada.asc

Direct Newton iteration for .op point succeeded.

Date: Thu Sep 19 14:40:09 2019
Total elapsed time: 2.835 seconds.

tnom = 27
temp = 27
method = modified trap
totiter = 1504237
traniter = 1504232
tranpoints = 626059
accept = 588291
rejected = 37768
matrix size = 11
fillins = 1
solver = Normal
Matrix Compiler1: 574 bytes object code size  0.2/0.1/[0.1]
Matrix Compiler2: 827 bytes object code size  0.1/0.2/[0.1]

