Circuit: * C:\Users\Carlos\Desktop\ITBA\3er año\1er cuatri\LABO\TP2\labelec-tp2\Simulaciones\EJ1\Draft1.asc

Fatal Error: Unknown subcircuit called in:
   xu1 n002 n001 n003 opamp aol=100k gbw=10meg
