Circuit: * C:\Users\Carlos\Desktop\ITBA\3er año\1er cuatri\LABO\TP2\labelec-tp2\Simulaciones\EJ1\modelo_ind.asc


Date: Sun Sep 15 18:54:41 2019
Total elapsed time: 0.050 seconds.

tnom = 27
temp = 27
method = trap
totiter = 0
traniter = 0
tranpoints = 0
accept = 0
rejected = 0
matrix size = 6
fillins = 3
solver = Normal

